Version 4
SHEET 1 880 680
WIRE 192 80 32 80
WIRE 416 80 256 80
WIRE 32 128 32 80
WIRE 416 128 416 80
WIRE 32 256 32 208
WIRE 416 256 416 208
WIRE 416 256 32 256
WIRE 32 304 32 256
FLAG 32 304 0
FLAG 32 80 Vin
FLAG 416 80 Vout
SYMBOL res 400 112 R0
SYMATTR InstName R1
SYMATTR Value 10k
SYMBOL voltage 32 112 R0
WINDOW 123 0 0 Left 0
WINDOW 39 0 0 Left 0
SYMATTR InstName V1
SYMATTR Value SINE(0 10 60)
SYMBOL diode 256 64 R90
WINDOW 0 0 32 VBottom 2
WINDOW 3 32 32 VTop 2
SYMATTR InstName D1
TEXT -72 -16 Left 2 ;Half-wave Rectifier with Negative Output Voltage
TEXT -72 328 Left 2 !.tran 0 0.1 0
