Version 4
SHEET 1 880 680
WIRE 352 -16 208 -16
WIRE 208 16 208 -16
WIRE 208 144 208 96
WIRE 160 208 64 208
WIRE 64 256 64 208
WIRE 352 256 352 -16
WIRE 64 384 64 336
WIRE 208 384 208 208
WIRE 352 384 352 336
FLAG 64 384 0
FLAG 208 384 0
FLAG 352 384 0
SYMBOL Misc\\SCR 192 144 R0
SYMATTR InstName U1
SYMATTR Value EC103D1
SYMBOL res 192 0 R0
SYMATTR InstName R1
SYMATTR Value 220
SYMBOL current 64 336 R180
WINDOW 0 24 80 Left 2
WINDOW 3 24 0 Left 2
SYMATTR InstName I1
SYMATTR Value 0
SYMBOL voltage 352 240 R0
SYMATTR InstName V1
SYMATTR Value 0
TEXT 16 408 Left 2 !.dc V1 0 12 0.1\n.include EC103XX.txt
