Version 4
SHEET 1 880 680
WIRE -128 16 -272 16
WIRE 208 16 -128 16
WIRE 336 16 208 16
WIRE 208 48 208 16
WIRE -128 96 -128 16
WIRE 208 144 208 128
WIRE 336 144 208 144
WIRE 208 160 208 144
WIRE -272 192 -272 16
WIRE -128 224 -128 176
WIRE -16 224 -128 224
WIRE 112 224 64 224
WIRE 160 224 112 224
WIRE -128 272 -128 224
WIRE 112 272 112 224
WIRE -272 400 -272 272
WIRE -128 400 -128 352
WIRE -128 400 -272 400
WIRE 112 400 112 352
WIRE 112 400 -128 400
WIRE 208 400 208 224
WIRE 208 400 112 400
FLAG 336 16 V_LOAD+
FLAG 336 144 V_LOAD-
SYMBOL Misc\\SCR 192 160 R0
SYMATTR InstName U1
SYMATTR Value EC103D1
SYMBOL res 96 256 R0
SYMATTR InstName R1
SYMATTR Value 1k
SYMBOL res 80 208 R90
WINDOW 0 0 56 VBottom 2
WINDOW 3 32 56 VTop 2
SYMATTR InstName R2
SYMATTR Value 1k
SYMBOL res -144 80 R0
SYMATTR InstName R4
SYMATTR Value {1k-RX-1f}
SYMBOL res -144 256 R0
SYMATTR InstName R5
SYMATTR Value {RX+1f}
SYMBOL voltage -272 176 R0
SYMATTR InstName V1
SYMATTR Value 10
SYMBOL res 192 32 R0
SYMATTR InstName R3
SYMATTR Value 220
TEXT -352 584 Left 2 !.step param RX 0 1k 1
TEXT -352 608 Left 2 !.tran 1\n.include EC103XX.txt
