Version 4
SHEET 1 880 680
WIRE 256 64 128 64
WIRE 464 64 336 64
WIRE 128 112 128 64
WIRE 464 112 464 64
WIRE 128 240 128 192
WIRE 464 240 464 176
WIRE 464 240 128 240
WIRE 128 256 128 240
FLAG 128 256 0
FLAG 128 64 Vin
FLAG 464 64 Vout
SYMBOL voltage 128 96 R0
SYMATTR InstName V1
SYMATTR Value SINE(0 3 100)
SYMBOL res 352 48 R90
WINDOW 0 0 56 VBottom 2
WINDOW 3 32 56 VTop 2
SYMATTR InstName R1
SYMATTR Value 120k
SYMBOL diode 448 112 R0
SYMATTR InstName D1
SYMATTR Value 1N4148
TEXT 176 264 Left 2 !.tran 0 0.1 0
TEXT 120 -16 Left 2 ;Series Clipper w/ Negative Output
