Version 4
SHEET 1 880 680
WIRE 16 -160 -80 -160
WIRE 176 -160 96 -160
WIRE 448 -160 176 -160
WIRE 176 -112 176 -160
WIRE 176 48 176 -32
WIRE 448 128 448 -160
WIRE -80 144 -80 -160
WIRE 176 192 176 128
WIRE 288 192 176 192
WIRE 400 192 368 192
WIRE 176 256 176 192
WIRE -80 368 -80 224
WIRE 176 368 176 320
WIRE 176 368 -80 368
WIRE 448 368 448 192
WIRE 448 368 176 368
WIRE -80 384 -80 368
FLAG -80 -160 LOAD+
FLAG 176 -160 LOAD-
FLAG -80 384 0
SYMBOL res 384 176 R90
WINDOW 0 0 56 VBottom 2
WINDOW 3 32 56 VTop 2
SYMATTR InstName R3
SYMATTR Value 1k
SYMBOL Misc\\SCR 432 128 R0
SYMATTR InstName U1
SYMATTR Value EC103D1
SYMBOL voltage -80 128 R0
SYMATTR InstName V1
SYMATTR Value SINE(0 50 60)
SYMBOL res 112 -176 R90
WINDOW 0 0 56 VBottom 2
WINDOW 3 32 56 VTop 2
SYMATTR InstName R_LOAD
SYMATTR Value 100
SYMBOL res 160 32 R0
SYMATTR InstName R2
SYMATTR Value {RX+1n}
SYMBOL res 160 -128 R0
SYMATTR InstName R1
SYMATTR Value 47k
SYMBOL cap 160 256 R0
SYMATTR InstName C1
SYMATTR Value 1µ
TEXT -48 384 Left 1 !.include EC103XX.txt\n.step param RX 0 400k 50k\n.tran 100m
