Version 4
SHEET 1 880 680
WIRE 16 -160 -80 -160
WIRE 176 -160 96 -160
WIRE 448 -160 176 -160
WIRE 176 -128 176 -160
WIRE 176 -32 176 -64
WIRE 176 96 176 48
WIRE 448 128 448 -160
WIRE -80 144 -80 -160
WIRE 176 192 176 176
WIRE 288 192 176 192
WIRE 400 192 368 192
WIRE 176 208 176 192
WIRE -80 368 -80 224
WIRE 176 368 176 288
WIRE 176 368 -80 368
WIRE 448 368 448 192
WIRE 448 368 176 368
WIRE -80 384 -80 368
FLAG -80 -160 LOAD+
FLAG 176 -160 LOAD-
FLAG -80 384 0
SYMBOL res 160 80 R0
WINDOW 0 66 39 Right 2
WINDOW 3 105 76 Right 1
SYMATTR InstName R1
SYMATTR Value {500k-RX+1f}
SYMBOL res 160 192 R0
WINDOW 3 70 84 Bottom 1
SYMATTR Value {RX+1f}
SYMATTR InstName R2
SYMBOL res 384 176 R90
WINDOW 0 0 56 VBottom 2
WINDOW 3 32 56 VTop 2
SYMATTR InstName R3
SYMATTR Value 1k
SYMBOL Misc\\SCR 432 128 R0
SYMATTR InstName U1
SYMATTR Value EC103D1
SYMBOL res 192 64 R180
WINDOW 0 36 76 Left 2
WINDOW 3 36 40 Left 2
SYMATTR InstName R4
SYMATTR Value 3Meg
SYMBOL diode 160 -128 R0
SYMATTR InstName D1
SYMATTR Value RR2L6S
SYMBOL voltage -80 128 R0
SYMATTR InstName V1
SYMATTR Value SINE(0 50 60)
SYMBOL res 112 -176 R90
WINDOW 0 0 56 VBottom 2
WINDOW 3 32 56 VTop 2
SYMATTR InstName R_LOAD
SYMATTR Value 100
TEXT 80 328 Left 0 ;Equivalent Circuit of 500K Potentiometer
TEXT -48 384 Left 1 !.include EC103XX.txt\n.step param RX 0 500k 50k\n.tran 100m
RECTANGLE Normal 80 64 272 320 2
