Version 4
SHEET 1 880 680
WIRE 224 64 96 64
WIRE 432 64 304 64
WIRE 496 64 432 64
WIRE 96 112 96 64
WIRE 432 112 432 64
WIRE 496 112 496 64
WIRE 96 240 96 192
WIRE 256 240 96 240
WIRE 432 240 432 176
WIRE 432 240 256 240
WIRE 496 240 496 192
WIRE 496 240 432 240
FLAG 256 240 0
SYMBOL voltage 96 96 R0
WINDOW 0 69 16 Right 2
WINDOW 123 0 0 Left 0
WINDOW 39 0 0 Left 0
SYMATTR InstName VIN
SYMATTR Value ""
SYMBOL res 320 48 R90
WINDOW 0 0 56 VBottom 2
WINDOW 3 32 56 VTop 2
SYMATTR InstName R1
SYMATTR Value 100
SYMBOL zener 448 176 R180
WINDOW 0 24 64 Left 2
WINDOW 3 24 0 Left 2
SYMATTR InstName D1
SYMATTR Value 1N750
SYMBOL res 480 96 R0
SYMATTR InstName R2
SYMATTR Value 1k
TEXT 96 264 Left 2 !.dc VIN 0 10 1
TEXT 296 264 Left 2 !.op
