Version 4
SHEET 1 1060 680
WIRE 752 -256 528 -256
WIRE 528 -176 528 -256
WIRE 528 -16 528 -96
WIRE 560 -16 528 -16
WIRE 752 -16 752 -256
WIRE 752 -16 560 -16
WIRE 848 -16 752 -16
WIRE 864 -16 848 -16
WIRE 992 -16 912 -16
WIRE 192 48 128 48
WIRE 320 48 256 48
WIRE 448 48 320 48
WIRE 480 48 448 48
WIRE 320 80 320 48
WIRE 528 112 528 80
WIRE 560 112 528 112
WIRE 640 112 560 112
WIRE 752 112 752 -16
WIRE 992 112 992 -16
WIRE 128 144 128 48
WIRE 528 144 528 112
WIRE 640 160 640 112
WIRE 128 320 128 224
WIRE 320 320 320 160
WIRE 320 320 128 320
WIRE 528 320 528 224
WIRE 528 320 320 320
WIRE 576 320 528 320
WIRE 640 320 640 224
WIRE 640 320 576 320
WIRE 752 320 752 192
WIRE 752 320 640 320
WIRE 992 320 992 192
WIRE 992 320 752 320
WIRE 576 352 576 320
FLAG 448 48 VG
FLAG 560 -16 VD
FLAG 576 352 0
FLAG 560 112 VS
SYMBOL res 304 64 R0
SYMATTR InstName R1
SYMATTR Value 1Meg
SYMBOL njf 480 -16 R0
SYMATTR InstName J1
SYMATTR Value J111
SYMBOL voltage 128 128 R0
SYMATTR InstName V3
SYMATTR Value SINE(0 0.2 1000)
SYMBOL cap 256 32 R90
WINDOW 0 0 32 VBottom 2
WINDOW 3 32 32 VTop 2
SYMATTR InstName C1
SYMATTR Value 200µ
SYMBOL Misc\\battery 752 96 R0
SYMATTR InstName V1
SYMATTR Value 10
SYMBOL cap 912 -32 R90
WINDOW 0 0 32 VBottom 2
WINDOW 3 32 32 VTop 2
SYMATTR InstName C2
SYMATTR Value 200µ
SYMBOL res 976 96 R0
SYMATTR InstName R3
SYMATTR Value 50k
SYMBOL res 512 -192 R0
SYMATTR InstName R2
SYMATTR Value 2k
SYMBOL res 512 128 R0
SYMATTR InstName R4
SYMATTR Value 2k
SYMBOL cap 624 160 R0
SYMATTR InstName C3
SYMATTR Value 200µ
TEXT 352 -312 Left 2 ;JFET Common Source Ampliifer - Self-biased
TEXT 128 344 Left 2 !.op 0 0.005 0
TEXT 128 376 Left 2 !.tran 0 0.005 0
